LIG(A-307)
     RDKit          3D

 43 45  0  0  0  0  0  0  0  0999 V2000
   -8.9230   -0.0200  -21.5120 O   0  0  0  0  0  0  0  0  0  0  0  0
   -8.6570   -1.1290  -21.9590 C   0  0  0  0  0  0  0  0  0  0  0  0
   -7.6920   -2.0570  -21.2180 C   0  0  0  0  0  0  0  0  0  0  0  0
   -6.9920   -1.3680  -20.1530 N   0  0  0  0  0  0  0  0  0  0  0  0
   -5.8820   -0.5790  -20.2140 C   0  0  0  0  0  0  0  0  0  0  0  0
   -5.0730   -0.1420  -21.2520 C   0  0  0  0  0  0  0  0  0  0  0  0
   -4.0290    0.7190  -20.9390 C   0  0  0  0  0  0  0  0  0  0  0  0
   -3.8020    1.1190  -19.6250 C   0  0  0  0  0  0  0  0  0  0  0  0
   -4.6030    0.6570  -18.5890 C   0  0  0  0  0  0  0  0  0  0  0  0
   -5.6590   -0.1980  -18.8940 C   0  0  0  0  0  0  0  0  0  0  0  0
   -6.6270   -0.7740  -18.1010 N   0  0  0  0  0  0  0  0  0  0  0  0
   -7.4220   -1.4680  -18.8680 N   0  0  0  0  0  0  0  0  0  0  0  0
   -9.1680   -1.5590  -23.1510 N   0  0  0  0  0  0  0  0  0  0  0  0
   -8.6510   -2.7520  -23.8580 C   0  0  0  0  0  0  0  0  0  0  0  0
   -9.7760   -3.6570  -24.3490 C   0  0  0  0  0  0  0  0  0  0  0  0
   -7.6890   -2.3560  -24.9690 C   0  0  0  0  0  0  0  0  0  0  0  0
  -10.1240   -0.7230  -23.8900 C   0  0  0  0  0  0  0  0  0  0  0  0
  -11.5600   -0.7880  -23.4150 C   0  0  0  0  0  0  0  0  0  0  0  0
  -11.9960   -1.7970  -22.5630 C   0  0  0  0  0  0  0  0  0  0  0  0
  -13.3090   -1.8310  -22.1180 C   0  0  0  0  0  0  0  0  0  0  0  0
  -14.2010   -0.8610  -22.5190 C   0  0  0  0  0  0  0  0  0  0  0  0
  -13.7900    0.1310  -23.3790 C   0  0  0  0  0  0  0  0  0  0  0  0
  -12.4790    0.1680  -23.8250 C   0  0  0  0  0  0  0  0  0  0  0  0
   -8.2620   -2.8930  -20.7860 H   0  0  0  0  0  0  0  0  0  0  0  0
   -6.9540   -2.4480  -21.9330 H   0  0  0  0  0  0  0  0  0  0  0  0
   -5.2480   -0.4610  -22.2690 H   0  0  0  0  0  0  0  0  0  0  0  0
   -3.3850    1.0830  -21.7250 H   0  0  0  0  0  0  0  0  0  0  0  0
   -2.9910    1.8000  -19.4090 H   0  0  0  0  0  0  0  0  0  0  0  0
   -4.4110    0.9540  -17.5680 H   0  0  0  0  0  0  0  0  0  0  0  0
   -8.0700   -3.3360  -23.1280 H   0  0  0  0  0  0  0  0  0  0  0  0
   -9.3460   -4.5270  -24.8660 H   0  0  0  0  0  0  0  0  0  0  0  0
  -10.3730   -3.9980  -23.4900 H   0  0  0  0  0  0  0  0  0  0  0  0
  -10.4190   -3.0980  -25.0440 H   0  0  0  0  0  0  0  0  0  0  0  0
   -7.3220   -3.2610  -25.4750 H   0  0  0  0  0  0  0  0  0  0  0  0
   -8.2110   -1.7160  -25.6940 H   0  0  0  0  0  0  0  0  0  0  0  0
   -6.8400   -1.8060  -24.5390 H   0  0  0  0  0  0  0  0  0  0  0  0
   -9.7890    0.3220  -23.8120 H   0  0  0  0  0  0  0  0  0  0  0  0
  -10.1020   -1.0380  -24.9440 H   0  0  0  0  0  0  0  0  0  0  0  0
  -11.3050   -2.5630  -22.2460 H   0  0  0  0  0  0  0  0  0  0  0  0
  -13.6330   -2.6200  -21.4560 H   0  0  0  0  0  0  0  0  0  0  0  0
  -15.2190   -0.8800  -22.1590 H   0  0  0  0  0  0  0  0  0  0  0  0
  -14.4920    0.8840  -23.7080 H   0  0  0  0  0  0  0  0  0  0  0  0
  -12.1670    0.9500  -24.5020 H   0  0  0  0  0  0  0  0  0  0  0  0
  1  2  2  0
  2  3  1  0
  2 13  1  0
  3  4  1  0
  3 24  1  0
  3 25  1  0
  4  5  1  0
  4 12  1  0
  5  6  2  0
  5 10  1  0
  6  7  1  0
  6 26  1  0
  7  8  2  0
  7 27  1  0
  8  9  1  0
  8 28  1  0
  9 10  2  0
  9 29  1  0
 10 11  1  0
 11 12  2  0
 13 14  1  0
 13 17  1  0
 14 15  1  0
 14 16  1  0
 14 30  1  0
 15 31  1  0
 15 32  1  0
 15 33  1  0
 16 34  1  0
 16 35  1  0
 16 36  1  0
 17 18  1  0
 17 37  1  0
 17 38  1  0
 18 19  2  0
 18 23  1  0
 19 20  1  0
 19 39  1  0
 20 21  2  0
 20 40  1  0
 21 22  1  0
 21 41  1  0
 22 23  2  0
 22 42  1  0
 23 43  1  0
M  END
$$$$
